polycarpol.mol
  4887              3D

 32 35  0  0  1  0  0  0  0  0999 V2000
   -6.0235    1.3353    8.6577 C   0  0  0  0  0  0  0  0  0  0  0  0
   -6.7077    0.5851    9.7715 C   0  0  2  0  0  0  0  0  0  0  0  0
   -7.5562   -0.5774    9.2675 C   0  0  0  0  0  0  0  0  0  0  0  0
   -7.1062   -1.0454    7.8863 C   0  0  1  0  0  0  0  0  0  0  0  0
   -5.6104   -0.9555    7.5782 C   0  0  1  0  0  0  0  0  0  0  0  0
   -5.0522    0.4214    7.9437 C   0  0  0  0  0  0  0  0  0  0  0  0
   -7.7297   -2.3576    7.4489 C   0  0  0  0  0  0  0  0  0  0  0  0
   -7.3429   -2.6772    6.0530 C   0  0  0  0  0  0  0  0  0  0  0  0
   -6.2760   -2.1653    5.4173 C   0  0  0  0  0  0  0  0  0  0  0  0
   -5.3646   -1.2503    6.1047 C   0  0  0  0  0  0  0  0  0  0  0  0
   -6.0277   -2.4838    3.9561 C   0  0  1  0  0  0  0  0  0  0  0  0
   -4.5878   -2.2038    3.4628 C   0  0  1  0  0  0  0  0  0  0  0  0
   -4.0467   -0.8880    4.0025 C   0  0  0  0  0  0  0  0  0  0  0  0
   -4.3501   -0.6724    5.4394 C   0  0  0  0  0  0  0  0  0  0  0  0
   -6.8572   -1.5232    3.0818 C   0  0  1  0  0  0  0  0  0  0  0  0
   -6.1497   -1.4428    1.7367 C   0  0  0  0  0  0  0  0  0  0  0  0
   -4.8221   -2.1357    1.9625 C   0  0  1  0  0  0  0  0  0  0  0  0
   -9.0229   -0.1947    9.1738 C   0  0  0  0  0  0  0  0  0  0  0  0
   -7.4465   -1.6907   10.2927 C   0  0  0  0  0  0  0  0  0  0  0  0
   -7.4382    1.4913   10.5745 O   0  0  0  0  0  0  0  0  0  0  0  0
   -4.8421   -1.9892    8.3904 C   0  0  0  0  0  0  0  0  0  0  0  0
   -6.3985   -3.9401    3.6664 C   0  0  0  0  0  0  0  0  0  0  0  0
   -3.6150   -3.3124    3.8151 C   0  0  0  0  0  0  0  0  0  0  0  0
   -8.1901   -1.9592    2.8987 O   0  0  0  0  0  0  0  0  0  0  0  0
   -3.7505   -1.7996    0.9695 C   0  0  1  0  0  0  0  0  0  0  0  0
   -2.9473   -0.5631    1.2670 C   0  0  0  0  0  0  0  0  0  0  0  0
   -2.8628   -2.9891    0.7102 C   0  0  0  0  0  0  0  0  0  0  0  0
   -3.5549   -3.9628   -0.2208 C   0  0  0  0  0  0  0  0  0  0  0  0
   -2.6888   -5.1529   -0.4018 C   0  0  0  0  0  0  0  0  0  0  0  0
   -3.0337   -6.2870   -1.0207 C   0  0  0  0  0  0  0  0  0  0  0  0
   -2.0608   -7.4059   -1.1118 C   0  0  0  0  0  0  0  0  0  0  0  0
   -4.3725   -6.5217   -1.6235 C   0  0  0  0  0  0  0  0  0  0  0  0
  1  2  1  0  0  0  0
  2  3  1  0  0  0  0
  3  4  1  0  0  0  0
  4  5  1  0  0  0  0
  5  6  1  0  0  0  0
  1  6  1  0  0  0  0
  4  7  1  0  0  0  0
  7  8  1  0  0  0  0
  8  9  2  0  0  0  0
  9 10  1  0  0  0  0
  5 10  1  0  0  0  0
  9 11  1  0  0  0  0
 11 12  1  0  0  0  0
 12 13  1  0  0  0  0
 13 14  1  0  0  0  0
 11 15  1  0  0  0  0
 15 16  1  0  0  0  0
 10 14  2  0  0  0  0
 16 17  1  0  0  0  0
 12 17  1  0  0  0  0
  3 18  1  0  0  0  0
  2 20  1  0  0  0  0
  5 21  1  0  0  0  0
 11 22  1  0  0  0  0
  3 19  1  0  0  0  0
 12 23  1  0  0  0  0
 15 24  1  0  0  0  0
 17 25  1  0  0  0  0
 25 26  1  0  0  0  0
 25 27  1  0  0  0  0
 27 28  1  0  0  0  0
 28 29  1  0  0  0  0
 29 30  2  0  0  0  0
 30 31  1  0  0  0  0
 30 32  1  0  0  0  0
M  END
>  <energy>
72.970017365161283

$$$$
