polycarpol.mol
  4887              3D

 32 35  0  0  1  0  0  0  0  0999 V2000
    1.2042   -5.9485   -5.0084 C   0  0  0  0  0  0  0  0  0  0  0  0
    0.2115   -6.8940   -5.6324 C   0  0  2  0  0  0  0  0  0  0  0  0
   -0.3744   -7.8705   -4.6232 C   0  0  0  0  0  0  0  0  0  0  0  0
   -0.6336   -7.1956   -3.2776 C   0  0  1  0  0  0  0  0  0  0  0  0
   -0.6896   -5.6671   -3.2699 C   0  0  1  0  0  0  0  0  0  0  0  0
    0.5626   -5.0930   -3.9363 C   0  0  0  0  0  0  0  0  0  0  0  0
   -1.7137   -7.8690   -2.4548 C   0  0  0  0  0  0  0  0  0  0  0  0
   -1.9519   -7.1735   -1.1671 C   0  0  0  0  0  0  0  0  0  0  0  0
   -1.5627   -5.9264   -0.8629 C   0  0  0  0  0  0  0  0  0  0  0  0
   -0.8174   -5.1316   -1.8469 C   0  0  0  0  0  0  0  0  0  0  0  0
   -1.8085   -5.3525    0.5378 C   0  0  2  0  0  0  0  0  0  0  0  0
   -1.5818   -3.8211    0.6240 C   0  0  2  0  0  0  0  0  0  0  0  0
   -0.3479   -3.3642   -0.1332 C   0  0  0  0  0  0  0  0  0  0  0  0
   -0.2450   -3.9725   -1.4844 C   0  0  0  0  0  0  0  0  0  0  0  0
   -3.2703   -5.4046    1.0059 C   0  0  1  0  0  0  0  0  0  0  0  0
   -3.9825   -4.2525    0.3248 C   0  0  0  0  0  0  0  0  0  0  0  0
   -2.8678   -3.2669    0.0027 C   0  0  1  0  0  0  0  0  0  0  0  0
    0.5673   -9.0338   -4.3687 C   0  0  0  0  0  0  0  0  0  0  0  0
   -1.6446   -8.4415   -5.2283 C   0  0  0  0  0  0  0  0  0  0  0  0
    0.8035   -7.5504   -6.7365 O   0  0  0  0  0  0  0  0  0  0  0  0
   -1.9034   -5.1786   -4.0476 C   0  0  0  0  0  0  0  0  0  0  0  0
   -0.9297   -6.1096    1.5210 C   0  0  0  0  0  0  0  0  0  0  0  0
   -1.4402   -3.3372    2.0601 C   0  0  0  0  0  0  0  0  0  0  0  0
   -3.9447   -6.6237    0.8241 O   0  0  0  0  0  0  0  0  0  0  0  0
   -3.1588   -1.8067    0.2460 C   0  0  1  0  0  0  0  0  0  0  0  0
   -3.3919   -1.1216   -1.0793 C   0  0  0  0  0  0  0  0  0  0  0  0
   -4.3394   -1.5546    1.1568 C   0  0  0  0  0  0  0  0  0  0  0  0
   -3.9426   -0.6702    2.3150 C   0  0  0  0  0  0  0  0  0  0  0  0
   -4.1182    0.7604    1.9488 C   0  0  0  0  0  0  0  0  0  0  0  0
   -3.1189    1.6109    1.7039 C   0  0  0  0  0  0  0  0  0  0  0  0
   -3.4047    3.0098    1.2989 C   0  0  0  0  0  0  0  0  0  0  0  0
   -1.6849    1.2252    1.7811 C   0  0  0  0  0  0  0  0  0  0  0  0
  1  2  1  0  0  0  0
  2  3  1  0  0  0  0
  3  4  1  0  0  0  0
  4  5  1  0  0  0  0
  5  6  1  0  0  0  0
  1  6  1  0  0  0  0
  4  7  1  0  0  0  0
  7  8  1  0  0  0  0
  8  9  2  0  0  0  0
  9 10  1  0  0  0  0
  5 10  1  0  0  0  0
  9 11  1  0  0  0  0
 11 12  1  0  0  0  0
 12 13  1  0  0  0  0
 13 14  1  0  0  0  0
 11 15  1  0  0  0  0
 15 16  1  0  0  0  0
 10 14  2  0  0  0  0
 16 17  1  0  0  0  0
 12 17  1  0  0  0  0
  3 18  1  0  0  0  0
  2 20  1  0  0  0  0
  5 21  1  0  0  0  0
 11 22  1  0  0  0  0
  3 19  1  0  0  0  0
 12 23  1  0  0  0  0
 15 24  1  0  0  0  0
 17 25  1  0  0  0  0
 25 26  1  0  0  0  0
 25 27  1  0  0  0  0
 27 28  1  0  0  0  0
 28 29  1  0  0  0  0
 29 30  2  0  0  0  0
 30 31  1  0  0  0  0
 30 32  1  0  0  0  0
M  END
>  <energy>
74.267378736491423

$$$$
polycarpol.mol_1
  4887              3D

 32 35  0  0  1  0  0  0  0  0999 V2000
    1.2440   -5.8873   -4.9054 C   0  0  0  0  0  0  0  0  0  0  0  0
    0.0926   -6.5350   -5.6417 C   0  0  2  0  0  0  0  0  0  0  0  0
   -0.5939   -7.6040   -4.8043 C   0  0  0  0  0  0  0  0  0  0  0  0
   -1.0895   -7.0227   -3.4770 C   0  0  2  0  0  0  0  0  0  0  0  0
   -0.5558   -5.6361   -3.0838 C   0  0  1  0  0  0  0  0  0  0  0  0
    0.9130   -5.5021   -3.4761 C   0  0  0  0  0  0  0  0  0  0  0  0
   -1.1329   -8.0433   -2.3614 C   0  0  0  0  0  0  0  0  0  0  0  0
   -1.6255   -7.4567   -1.0962 C   0  0  0  0  0  0  0  0  0  0  0  0
   -1.4607   -6.1787   -0.7359 C   0  0  0  0  0  0  0  0  0  0  0  0
   -0.7329   -5.2645   -1.6150 C   0  0  0  0  0  0  0  0  0  0  0  0
   -1.9390   -5.6939    0.6353 C   0  0  2  0  0  0  0  0  0  0  0  0
   -1.7752   -4.1612    0.8648 C   0  0  2  0  0  0  0  0  0  0  0  0
   -0.4741   -3.6405    0.2718 C   0  0  0  0  0  0  0  0  0  0  0  0
   -0.2704   -4.1017   -1.1307 C   0  0  0  0  0  0  0  0  0  0  0  0
   -3.4546   -5.7922    0.8391 C   0  0  1  0  0  0  0  0  0  0  0  0
   -4.0469   -4.6425    0.0547 C   0  0  0  0  0  0  0  0  0  0  0  0
   -2.9955   -3.5338    0.1440 C   0  0  1  0  0  0  0  0  0  0  0  0
    0.3382   -8.7884   -4.5958 C   0  0  0  0  0  0  0  0  0  0  0  0
   -1.8005   -8.1274   -5.5650 C   0  0  0  0  0  0  0  0  0  0  0  0
    0.5782   -7.0558   -6.8670 O   0  0  0  0  0  0  0  0  0  0  0  0
   -1.3776   -4.6148   -3.8648 C   0  0  0  0  0  0  0  0  0  0  0  0
   -1.2224   -6.5159    1.6979 C   0  0  0  0  0  0  0  0  0  0  0  0
   -1.7911   -3.8236    2.3500 C   0  0  0  0  0  0  0  0  0  0  0  0
   -4.0470   -7.0211    0.5062 O   0  0  0  0  0  0  0  0  0  0  0  0
   -3.5678   -2.2542    0.7373 C   0  0  2  0  0  0  0  0  0  0  0  0
   -4.8678   -1.8870    0.0536 C   0  0  0  0  0  0  0  0  0  0  0  0
   -2.6156   -1.0839    0.5991 C   0  0  0  0  0  0  0  0  0  0  0  0
   -2.6649   -0.1937    1.8220 C   0  0  0  0  0  0  0  0  0  0  0  0
   -3.5482    0.9753    1.5710 C   0  0  0  0  0  0  0  0  0  0  0  0
   -3.1537    2.2075    1.2418 C   0  0  0  0  0  0  0  0  0  0  0  0
   -4.1541    3.2681    0.9577 C   0  0  0  0  0  0  0  0  0  0  0  0
   -1.7285    2.5862    1.0674 C   0  0  0  0  0  0  0  0  0  0  0  0
  1  2  1  0  0  0  0
  2  3  1  0  0  0  0
  3  4  1  0  0  0  0
  4  5  1  0  0  0  0
  5  6  1  0  0  0  0
  1  6  1  0  0  0  0
  4  7  1  0  0  0  0
  7  8  1  0  0  0  0
  8  9  2  0  0  0  0
  9 10  1  0  0  0  0
  5 10  1  0  0  0  0
  9 11  1  0  0  0  0
 11 12  1  0  0  0  0
 12 13  1  0  0  0  0
 13 14  1  0  0  0  0
 11 15  1  0  0  0  0
 15 16  1  0  0  0  0
 10 14  2  0  0  0  0
 16 17  1  0  0  0  0
 12 17  1  0  0  0  0
  3 18  1  0  0  0  0
  2 20  1  0  0  0  0
  5 21  1  0  0  0  0
 11 22  1  0  0  0  0
  3 19  1  0  0  0  0
 12 23  1  0  0  0  0
 15 24  1  0  0  0  0
 17 25  1  0  0  0  0
 25 26  1  0  0  0  0
 25 27  1  0  0  0  0
 27 28  1  0  0  0  0
 28 29  1  0  0  0  0
 29 30  2  0  0  0  0
 30 31  1  0  0  0  0
 30 32  1  0  0  0  0
M  END
>  <energy>
76.408134693909588

$$$$
